
**** 07/08/17 12:42:46 ********* PSpice 9.2 (Mar 2000) ******** ID# 0 ********

 ** Profile: "SCHEMATIC1-bonus"  [ D:\A\E, SOURCES\ELECTRONIC\HOMEWORKS\BP_PROJECT\bonus-SCHEMATIC1-bonus.sim ] 


 ****     CIRCUIT DESCRIPTION


******************************************************************************




** Creating circuit file "bonus-SCHEMATIC1-bonus.sim.cir" 
** WARNING: THIS AUTOMATICALLY GENERATED FILE MAY BE OVERWRITTEN BY SUBSEQUENT SIMULATIONS

*Libraries: 
* Local Libraries :
* From [PSPICE NETLIST] section of C:\Program Files\Orcad\PSpice\PSpice.ini file:
.lib "nom.lib" 

*Analysis directives: 
.TRAN  0 1000ns 0 
.PROBE V(*) I(*) W(*) D(*) NOISE(*) 
.INC ".\bonus-SCHEMATIC1.net" 



**** INCLUDING bonus-SCHEMATIC1.net ****
* source BONUS
R_R6         N01065 N01065  1k  
R_R7         0 N01065  1k  
V_V1         N01065 0 5Vdc
R_R1         N01065 N01065  1k  
R_R2         N01065 N01065  1k  
R_R3         N01065 N01065  1k  
R_R4         N01065 N01065  1k  
R_R5         N01065 N01065  1k  

**** RESUMING bonus-SCHEMATIC1-bonus.sim.cir ****
.END

**** 07/08/17 12:42:46 ********* PSpice 9.2 (Mar 2000) ******** ID# 0 ********

 ** Profile: "SCHEMATIC1-bonus"  [ D:\A\E, SOURCES\ELECTRONIC\HOMEWORKS\BP_PROJECT\bonus-SCHEMATIC1-bonus.sim ] 


 ****     INITIAL TRANSIENT SOLUTION       TEMPERATURE =   27.000 DEG C


******************************************************************************



 NODE   VOLTAGE     NODE   VOLTAGE     NODE   VOLTAGE     NODE   VOLTAGE


(N01065)    5.0000 




    VOLTAGE SOURCE CURRENTS
    NAME         CURRENT

    V_V1        -5.000E-03

    TOTAL POWER DISSIPATION   2.50E-02  WATTS



          JOB CONCLUDED

          TOTAL JOB TIME            1.09
