
**** 07/08/17 12:42:35 ********* PSpice 9.2 (Mar 2000) ******** ID# 0 ********

 ** Profile: "SCHEMATIC1-bonus"  [ D:\A\E, SOURCES\ELECTRONIC\HOMEWORKS\BP_PROJECT\bonus-SCHEMATIC1-bonus.sim ] 


 ****     CIRCUIT DESCRIPTION


******************************************************************************




** Creating circuit file "bonus-SCHEMATIC1-bonus.sim.cir" 
** WARNING: THIS AUTOMATICALLY GENERATED FILE MAY BE OVERWRITTEN BY SUBSEQUENT SIMULATIONS

*Libraries: 
* Local Libraries :
* From [PSPICE NETLIST] section of C:\Program Files\Orcad\PSpice\PSpice.ini file:
.lib "nom.lib" 

*Analysis directives: 
.TRAN  0 1000ns 0 
.PROBE V(*) I(*) W(*) D(*) NOISE(*) 
.INC ".\bonus-SCHEMATIC1.net" 



**** INCLUDING bonus-SCHEMATIC1.net ****
* source BONUS
R_R6         0 0  1k  
R_R7         0 0  1k  
V_V1         0 0 5Vdc
R_R1         0 0  1k  
R_R2         0 0  1k  
R_R3         0 0  1k  
R_R4         0 0  1k  
R_R5         0 0  1k  

**** RESUMING bonus-SCHEMATIC1-bonus.sim.cir ****
.END

WARNING -- All terminals are grounded in this circuit