
**** 11/24/17 19:48:23 ********* PSpice 9.2 (Mar 2000) ******** ID# 0 ********

 ** Profile: "SCHEMATIC1-test"  [ D:\ORCADPROJECTS\Q6\q6-schematic1-test.sim ] 


 ****     CIRCUIT DESCRIPTION


******************************************************************************




** Creating circuit file "q6-schematic1-test.sim.cir" 
** WARNING: THIS AUTOMATICALLY GENERATED FILE MAY BE OVERWRITTEN BY SUBSEQUENT SIMULATIONS

*Libraries: 
* Local Libraries :
.LIB ".\q6.lib" 
* From [PSPICE NETLIST] section of D:\Orcad\PSpice\PSpice.ini file:
.lib "nom.lib" 

*Analysis directives: 
.DC LIN PARAM a 0 2.5 0.05 
.PROBE V(*) I(*) W(*) D(*) NOISE(*) 
.INC ".\q6-SCHEMATIC1.net" 



**** INCLUDING q6-SCHEMATIC1.net ****
* source Q6
R_R1         N00134 N00257  10k  
M_M2         N00134 N00346 0 0 Mbreakn           
V_VDD         N00257 0 2.5Vdc
V_V3         N00346 0 {a}
.PARAM  a=0

**** RESUMING q6-schematic1-test.sim.cir ****
.END

**** 11/24/17 19:48:23 ********* PSpice 9.2 (Mar 2000) ******** ID# 0 ********

 ** Profile: "SCHEMATIC1-test"  [ D:\ORCADPROJECTS\Q6\q6-schematic1-test.sim ] 


 ****     MOSFET MODEL PARAMETERS


******************************************************************************




               Mbreakn         
               NMOS            
       LEVEL    1            
           L  250.000000E-09 
           W  500.000000E-09 
         VTO     .5          
          KP  100.000000E-06 
       GAMMA    0            
         PHI     .6          
      LAMBDA     .06         
          IS   10.000000E-15 
          JS    0            
          PB     .8          
        PBSW     .8          
          CJ    0            
        CJSW    0            
        CGSO    0            
        CGDO    0            
        CGBO    0            
         TOX    0            
          XJ    0            
       UCRIT   10.000000E+03 
      DIOMOD    1            
         VFB    0            
        LETA    0            
        WETA    0            
          U0    0            
        TEMP    0            
         VDD    0            
       XPART    0            



          JOB CONCLUDED

          TOTAL JOB TIME             .03
