
**** 11/19/17 12:05:54 ********* PSpice 9.2 (Mar 2000) ******** ID# 0 ********

 ** Profile: "SCHEMATIC1-test"  [ D:\ORCADPROJECTS\Q6\q6-SCHEMATIC1-test.sim ] 


 ****     CIRCUIT DESCRIPTION


******************************************************************************




** Creating circuit file "q6-SCHEMATIC1-test.sim.cir" 
** WARNING: THIS AUTOMATICALLY GENERATED FILE MAY BE OVERWRITTEN BY SUBSEQUENT SIMULATIONS

*Libraries: 
* Local Libraries :
.LIB ".\q6.lib" 
* From [PSPICE NETLIST] section of D:\Orcad\PSpice\PSpice.ini file:
.lib "nom.lib" 

*Analysis directives: 
.DC LIN PARAM a 0 2.5 0.05 
.PROBE V(*) I(*) W(*) D(*) NOISE(*) 
.INC ".\q6-SCHEMATIC1.net" 



**** INCLUDING q6-SCHEMATIC1.net ****
* source Q6
R_R1         N00134 N00257  10k  
M_M2         N00134 N00346 0 0 Mbreakn           
V_VDD         N00257 0 2.5Vdc
V_V3         N00346 0 0Vdc

**** RESUMING q6-SCHEMATIC1-test.sim.cir ****
.END

WARNING -- Library file D:\ORCADPROJECTS\Q6\q6.lib has changed since index file q6.ind was created.
WARNING -- The timestamp changed from Sun Nov 19 12:05:30 2017 to Sun Nov 19 12:05:52 2017.
Making new index file q6.ind for library file q6.lib
Index has 1 entries from 1 file(s).


ERROR -- Undefined parameter: a