
**** 12/22/17 10:20:54 ********* PSpice 9.2 (Mar 2000) ******** ID# 0 ********

 ** Profile: "SCHEMATIC1-test"  [ D:\DIGITAL_E\HW3_2\ORCAD_SIMULATION_Q11\Q15\q15-SCHEMATIC1-test.sim ] 


 ****     CIRCUIT DESCRIPTION


******************************************************************************




** Creating circuit file "q15-SCHEMATIC1-test.sim.cir" 
** WARNING: THIS AUTOMATICALLY GENERATED FILE MAY BE OVERWRITTEN BY SUBSEQUENT SIMULATIONS

*Libraries: 
* Local Libraries :
.LIB ".\q15.lib" 
* From [PSPICE NETLIST] section of D:\Orcad\PSpice\PSpice.ini file:
.lib "nom.lib" 

*Analysis directives: 
.DC LIN PARAM a 0 2.5 0.01 
.PROBE V(*) I(*) W(*) D(*) NOISE(*) 
.INC ".\q15-SCHEMATIC1.net" 



**** INCLUDING q15-SCHEMATIC1.net ****
* source Q15
M_M2         N00360 N00281 N00143 N00143 Mbreakp           
M_M3         N00143 N00281 0 0 Mbreakn           
V_VDD         0 N00360 2 Vdc
-------------------------$
ERROR -- Expecting keyword STIMULUS, saw Vdc.

V_Vin         N00281 0 {a}
.PARAM  a=0

**** RESUMING q15-SCHEMATIC1-test.sim.cir ****
.END
