
**** 04/24/17 22:35:48 ********* PSpice 9.2 (Mar 2000) ******** ID# 0 ********

 ** Profile: "SCHEMATIC1-1st run "  [ D:\A\e, sources\Electronic\Homeworks\Midterm Project\mid_project\1\1-schematic1-1st run .sim ] 


 ****     CIRCUIT DESCRIPTION


******************************************************************************




** Creating circuit file "1-schematic1-1st run .sim.cir" 
** WARNING: THIS AUTOMATICALLY GENERATED FILE MAY BE OVERWRITTEN BY SUBSEQUENT SIMULATIONS

*Libraries: 
* Local Libraries :
* From [PSPICE NETLIST] section of d:\orcad\PSpice\PSpice.ini file:
.lib "nom.lib" 

*Analysis directives: 
.DC LIN V(D1) 0 10 0.01 
----------$
ERROR -- Invalid number
.PROBE V(*) I(*) W(*) D(*) NOISE(*) 
.INC ".\1-SCHEMATIC1.net" 



**** INCLUDING 1-SCHEMATIC1.net ****
* source 1
D_D1         N00170 0 D1N4148 
R_R1         N00077 N00170  1k  
V_V1         N00077 0 5Vdc

**** RESUMING "1-schematic1-1st run .sim.cir" ****
.END
