
**** 03/29/17 20:30:38 ********* PSpice 9.2 (Mar 2000) ******** ID# 0 ********

 ** Profile: "SCHEMATIC1-1st run - alef"  [ D:\A\e, sources\Electronic\Homeworks\Midterm Project\mid_project\1\1-schematic1-1st run -


 ****     CIRCUIT DESCRIPTION


******************************************************************************




** Creating circuit file "1-schematic1-1st run - alef.sim.cir" 
** WARNING: THIS AUTOMATICALLY GENERATED FILE MAY BE OVERWRITTEN BY SUBSEQUENT SIMULATIONS

*Libraries: 
* Local Libraries :
* From [PSPICE NETLIST] section of d:\orcad\PSpice\PSpice.ini file:
.lib "nom.lib" 

*Analysis directives: 
.TRAN  0 1000ns 0 
.PROBE V(*) I(*) W(*) D(*) NOISE(*) 
.INC ".\1-SCHEMATIC1.net" 



**** INCLUDING 1-SCHEMATIC1.net ****
* source 1
D_D1         N00170 0 D1N4148 
R_R1         0 N00170  1k  

**** RESUMING "1-schematic1-1st run - alef.sim.cir" ****
.END

**** 03/29/17 20:30:38 ********* PSpice 9.2 (Mar 2000) ******** ID# 0 ********

 ** Profile: "SCHEMATIC1-1st run - alef"  [ D:\A\e, sources\Electronic\Homeworks\Midterm Project\mid_project\1\1-schematic1-1st run -


 ****     Diode MODEL PARAMETERS


******************************************************************************




               D1N4148         
          IS    2.682000E-09 
           N    1.836        
         ISR    1.565000E-09 
         IKF     .04417      
          BV  100            
         IBV  100.000000E-06 
          RS     .5664       
          TT   11.540000E-09 
         CJO    4.000000E-12 
          VJ     .5          
           M     .3333       


**** 03/29/17 20:30:38 ********* PSpice 9.2 (Mar 2000) ******** ID# 0 ********

 ** Profile: "SCHEMATIC1-1st run - alef"  [ D:\A\e, sources\Electronic\Homeworks\Midterm Project\mid_project\1\1-schematic1-1st run -


 ****     INITIAL TRANSIENT SOLUTION       TEMPERATURE =   27.000 DEG C


******************************************************************************



 NODE   VOLTAGE     NODE   VOLTAGE     NODE   VOLTAGE     NODE   VOLTAGE


(N00170)-88.05E-24 




    VOLTAGE SOURCE CURRENTS
    NAME         CURRENT


    TOTAL POWER DISSIPATION   0.00E+00  WATTS



          JOB CONCLUDED

          TOTAL JOB TIME             .08
