
**** 04/17/17 01:14:55 ********* PSpice 9.2 (Mar 2000) ******** ID# 0 ********

 ** Profile: "SCHEMATIC1-1st run "  [ D:\A\e, sources\Electronic\Homeworks\Midterm Project\mid_project\1\design1-schematic1-1st run .


 ****     CIRCUIT DESCRIPTION


******************************************************************************




** Creating circuit file "design1-schematic1-1st run .sim.cir" 
** WARNING: THIS AUTOMATICALLY GENERATED FILE MAY BE OVERWRITTEN BY SUBSEQUENT SIMULATIONS

*Libraries: 
* Local Libraries :
* From [PSPICE NETLIST] section of d:\orcad\PSpice\PSpice.ini file:
.lib "nom.lib" 

*Analysis directives: 
.DC LIN V2 0 50 0.01 
.PROBE V(*) I(*) W(*) D(*) NOISE(*) 
.INC ".\design1-SCHEMATIC1.net" 



**** INCLUDING design1-SCHEMATIC1.net ****
* source 2
D_D1         N00089 0 D1N4740 
R_R1         N00116 N00089  1k  
V_V1         N00116 0 DC 0Vdc AC 1Vac 

**** RESUMING "design1-schematic1-1st run .sim.cir" ****
.END


ERROR -- DC device V2 is undefined