
**** 07/08/17 15:08:18 ********* PSpice 9.2 (Mar 2000) ******** ID# 0 ********

 ** Profile: "SCHEMATIC1-BinaryWeighted Resistor Ladder DAC"  [ D:\A\e, sources\Electronic\Homeworks\BP_Project\BP_Project\BinaryWeig


 ****     CIRCUIT DESCRIPTION


******************************************************************************




** Creating circuit file "binaryweighted resistor ladder dac-schematic1-binaryweighted resistor ladder dac.sim.cir" 
** WARNING: THIS AUTOMATICALLY GENERATED FILE MAY BE OVERWRITTEN BY SUBSEQUENT SIMULATIONS

*Libraries: 
* Local Libraries :
* From [PSPICE NETLIST] section of C:\Program Files\Orcad\PSpice\PSpice.ini file:
.lib "nom.lib" 

*Analysis directives: 
.TRAN  0 1000ns 0 
.PROBE V(*) I(*) W(*) D(*) NOISE(*) 
.INC ".\binaryweighted resistor ladder dac-SCHEMATIC1.net" 



**** INCLUDING "binaryweighted resistor ladder dac-SCHEMATIC1.net" ****
* source BINARYWEIGHTED RESISTOR LADDER DAC
R_R1         0 N00805  2k  
R_R2         0 N00805  4k  
R_R6         N00261 N00235  1k  
R_R3         0 N00805  8k  
R_R7         0 N00261  1k  
R_R4         N05499 N00805  1k  
V_V1         0 N00805 -5Vdc
R_R5         0 N00805  16k  
E_U1         N00235 0 VALUE {LIMIT(V(N05499,N00261)*1E6,-15V,+15V)}

**** RESUMING "binaryweighted resistor ladder dac-schematic1-binaryweighted resistor ladder dac.sim.cir" ****
.END

ERROR -- Less than 2 connections at node N05499