
**** 07/03/17 00:32:49 ********* PSpice 9.2 (Mar 2000) ******** ID# 0 ********

 ** Profile: "SCHEMATIC1-a"  [ D:\A\e, sources\Electronic\Homeworks\BP_Project\BP_Project\A\part_a-schematic1-a.sim ] 


 ****     CIRCUIT DESCRIPTION


******************************************************************************




** Creating circuit file "part_a-schematic1-a.sim.cir" 
** WARNING: THIS AUTOMATICALLY GENERATED FILE MAY BE OVERWRITTEN BY SUBSEQUENT SIMULATIONS

*Libraries: 
* Local Libraries :
* From [PSPICE NETLIST] section of C:\Program Files\Orcad\PSpice\PSpice.ini file:
.lib "nom.lib" 

*Analysis directives: 
.AC DEC 10 0 100000
-----------$
ERROR -- Invalid value
.PROBE V(*) I(*) W(*) D(*) NOISE(*) 
.INC ".\part_a-SCHEMATIC1.net" 



**** INCLUDING part_a-SCHEMATIC1.net ****
* source PART_A
V_V1         0 N00249 50Vdc
R_R1         N00121 N00213  345k  
R_R2         0 N00121  292k  
E_U3         N00213 0 VALUE {LIMIT(V(N00249,N00121)*1E6,-15V,+15V)}

**** RESUMING part_a-schematic1-a.sim.cir ****
.END
