
**** 04/02/17 17:15:35 ********* PSpice 9.2 (Mar 2000) ******** ID# 0 ********

 ** Profile: "SCHEMATIC1-2nd run"  [ D:\A\e, sources\Electronic\Homeworks\Midterm Project\mid_project\3\3-schematic1-2nd run.sim ] 


 ****     CIRCUIT DESCRIPTION


******************************************************************************




** Creating circuit file "3-schematic1-2nd run.sim.cir" 
** WARNING: THIS AUTOMATICALLY GENERATED FILE MAY BE OVERWRITTEN BY SUBSEQUENT SIMULATIONS

*Libraries: 
* Local Libraries :
* From [PSPICE NETLIST] section of d:\orcad\PSpice\PSpice.ini file:
.lib "nom.lib" 

*Analysis directives: 
.TRAN  0 1000ns 0 
.PROBE V(*) I(*) W(*) D(*) NOISE(*) 
.INC ".\3-SCHEMATIC1.net" 



**** INCLUDING 3-SCHEMATIC1.net ****
* source 3
R_R1         N01211 N01344  5k  
D_D1         0 N01290 D1N4740 
D_D2         N01344 N01290 D1N4740 
V_V1         N01211 0  
+SIN 0 50 50 0 0 0

**** RESUMING "3-schematic1-2nd run.sim.cir" ****
.END

**** 04/02/17 17:15:35 ********* PSpice 9.2 (Mar 2000) ******** ID# 0 ********

 ** Profile: "SCHEMATIC1-2nd run"  [ D:\A\e, sources\Electronic\Homeworks\Midterm Project\mid_project\3\3-schematic1-2nd run.sim ] 


 ****     Diode MODEL PARAMETERS


******************************************************************************




               D1N4740         
          IS    1.945000E-15 
         ISR    2.040000E-09 
          BV   10            
         IBV     .35034      
         NBV     .84137      
        IBVL     .01         
        NBVL     .17757      
          RS    2.302        
         CJO   82.000000E-12 
          VJ     .75         
           M     .3649       
        TBV1  650.000000E-06 


**** 04/02/17 17:15:35 ********* PSpice 9.2 (Mar 2000) ******** ID# 0 ********

 ** Profile: "SCHEMATIC1-2nd run"  [ D:\A\e, sources\Electronic\Homeworks\Midterm Project\mid_project\3\3-schematic1-2nd run.sim ] 


 ****     INITIAL TRANSIENT SOLUTION       TEMPERATURE =   27.000 DEG C


******************************************************************************



 NODE   VOLTAGE     NODE   VOLTAGE     NODE   VOLTAGE     NODE   VOLTAGE


(N01211)    0.0000 (N01290)-65.95E-18 (N01344)    0.0000 




    VOLTAGE SOURCE CURRENTS
    NAME         CURRENT

    V_V1         0.000E+00

    TOTAL POWER DISSIPATION   0.00E+00  WATTS



          JOB CONCLUDED

          TOTAL JOB TIME             .13
