
**** 04/25/17 10:25:46 ********* PSpice 9.2 (Mar 2000) ******** ID# 0 ********

 ** Profile: "SCHEMATIC1-1st run"  [ D:\A\e, sources\Electronic\Homeworks\Midterm Project\mid_project\2\2-schematic1-1st run.sim ] 


 ****     CIRCUIT DESCRIPTION


******************************************************************************




** Creating circuit file "2-schematic1-1st run.sim.cir" 
** WARNING: THIS AUTOMATICALLY GENERATED FILE MAY BE OVERWRITTEN BY SUBSEQUENT SIMULATIONS

*Libraries: 
* Local Libraries :
* From [PSPICE NETLIST] section of d:\orcad\PSpice\PSpice.ini file:
.lib "nom.lib" 

*Analysis directives: 
.TRAN  0 4ms 0 4m 
.PROBE V(*) I(*) W(*) D(*) NOISE(*) 
.INC ".\2-SCHEMATIC1.net" 



**** INCLUDING 2-SCHEMATIC1.net ****
* source 2
D_D2         N00347 N00271 D1N4148 
D_D3         0 N00287 D1N4148 
D_D4         N00347 0 D1N4148 
V_V2         N00271 0  
+SIN 0 10 50 0 0 0
D_D5         N00271 N00287 D1N4148 
R_R1         N00271 0  1k  

**** RESUMING "2-schematic1-1st run.sim.cir" ****
.END

**** 04/25/17 10:25:46 ********* PSpice 9.2 (Mar 2000) ******** ID# 0 ********

 ** Profile: "SCHEMATIC1-1st run"  [ D:\A\e, sources\Electronic\Homeworks\Midterm Project\mid_project\2\2-schematic1-1st run.sim ] 


 ****     Diode MODEL PARAMETERS


******************************************************************************




               D1N4148         
          IS    2.682000E-09 
           N    1.836        
         ISR    1.565000E-09 
         IKF     .04417      
          BV  100            
         IBV  100.000000E-06 
          RS     .5664       
          TT   11.540000E-09 
         CJO    4.000000E-12 
          VJ     .5          
           M     .3333       


**** 04/25/17 10:25:46 ********* PSpice 9.2 (Mar 2000) ******** ID# 0 ********

 ** Profile: "SCHEMATIC1-1st run"  [ D:\A\e, sources\Electronic\Homeworks\Midterm Project\mid_project\2\2-schematic1-1st run.sim ] 


 ****     INITIAL TRANSIENT SOLUTION       TEMPERATURE =   27.000 DEG C


******************************************************************************



 NODE   VOLTAGE     NODE   VOLTAGE     NODE   VOLTAGE     NODE   VOLTAGE


(N00271)    0.0000 (N00287)-7.693E-15 (N00347) 7.695E-15 




    VOLTAGE SOURCE CURRENTS
    NAME         CURRENT

    V_V2         0.000E+00

    TOTAL POWER DISSIPATION   0.00E+00  WATTS



          JOB CONCLUDED

          TOTAL JOB TIME             .16
