
**** 07/08/17 13:47:30 ********* PSpice 9.2 (Mar 2000) ******** ID# 0 ********

 ** Profile: "SCHEMATIC1- R-2R DAC"  [ D:\A\e, sources\Electronic\Homeworks\BP_Project\BP_Project\R-2R DAC\r-2r dac-schematic1- r-2r 


 ****     CIRCUIT DESCRIPTION


******************************************************************************




** Creating circuit file "r-2r dac-schematic1- r-2r dac.sim.cir" 
** WARNING: THIS AUTOMATICALLY GENERATED FILE MAY BE OVERWRITTEN BY SUBSEQUENT SIMULATIONS

*Libraries: 
* Local Libraries :
* From [PSPICE NETLIST] section of C:\Program Files\Orcad\PSpice\PSpice.ini file:
.lib "nom.lib" 

*Analysis directives: 
.TRAN  0 10000ns 0 100ns 
.PROBE V(*) I(*) W(*) D(*) NOISE(*) 
.INC ".\r-2r dac-SCHEMATIC1.net" 



**** INCLUDING "r-2r dac-SCHEMATIC1.net" ****
* source R-2R DAC
R_R1         0 N03466  20k  
R_R7         N03466 N03420  10k  
R_R2         0 N03420  20k  
R_R8         N03420 N03400  10k  
R_R3         0 N03400  20k  
R_R12         0 N05965  20k  
R_R14         0 N00261  1k  
R_R4         N00574 N03252  20k  
R_R11         N03400 N05965  10k  
V_V1         0 N03252 -5Vdc
R_R5         0 N05965  20k  
E_U1         N00235 0 VALUE {LIMIT(V(N00574,N00261)*1E6,-15V,+15V)}
R_R6         N03252 N03466  10k  
R_R13         N00261 N00235  1k  

**** RESUMING "r-2r dac-schematic1- r-2r dac.sim.cir" ****
.END

ERROR -- Less than 2 connections at node N00574